<configuration><time><begin value="0"/><end value="7200.0"/></time><input><net-file value="C:/Users/86189/Desktop/&#26500;&#24314;&#39640;&#36895;&#36335;&#27573;/ArterialIntersection..net.xml"/><route-files value="C:/Users/86189/Desktop/&#26500;&#24314;&#39640;&#36895;&#36335;&#27573;/ArterialIntersection..rou.xml"/><additional-files value="C:/Users/86189/Desktop/&#26500;&#24314;&#39640;&#36895;&#36335;&#27573;/ArterialIntersection..add.xml"/></input><output><netstate-dump value="output.xml"/></output></configuration>