<additional><inductionLoop file="loop_12_u_0.xml" freq="30" id="12_u_0" lane="12_u_0" pos="x1/2"/><inductionLoop file="loop_12_u_1.xml" freq="30" id="12_u_1" lane="12_u_1" pos="x1/2"/><inductionLoop file="loop_12_u_2.xml" freq="30" id="12_u_2" lane="12_u_2" pos="x1/2"/><inductionLoop file="loop_12_u_3.xml" freq="30" id="12_u_3" lane="12_u_3" pos="x1/2"/><inductionLoop file="loop_12_u_4.xml" freq="30" id="12_u_4" lane="12_u_4" pos="x1/2"/><inductionLoop file="loop_23_u_0.xml" freq="30" id="23_u_0" lane="23_u_0" pos="x2/2"/><inductionLoop file="loop_23_u_1.xml" freq="30" id="23_u_1" lane="23_u_1" pos="x2/2"/><inductionLoop file="loop_23_u_2.xml" freq="30" id="23_u_2" lane="23_u_2" pos="x2/2"/><inductionLoop file="loop_23_u_3.xml" freq="30" id="23_u_3" lane="23_u_3" pos="x2/2"/><inductionLoop file="loop_23_u_4.xml" freq="30" id="23_u_4" lane="23_u_4" pos="x2/2"/><inductionLoop file="loop_23_u_5.xml" freq="30" id="23_u_5" lane="23_u_5" pos="x2/2"/><inductionLoop file="loop_34_u_0.xml" freq="30" id="34_u_0" lane="34_u_0" pos="x3/2"/><inductionLoop file="loop_34_u_1.xml" freq="30" id="34_u_1" lane="34_u_1" pos="x3/2"/><inductionLoop file="loop_34_u_2.xml" freq="30" id="34_u_2" lane="34_u_2" pos="x3/2"/><inductionLoop file="loop_34_u_3.xml" freq="30" id="34_u_3" lane="34_u_3" pos="x3/2"/><inductionLoop file="loop_34_u_4.xml" freq="30" id="34_u_4" lane="34_u_4" pos="x3/2"/><inductionLoop file="loop_52_u_0.xml" freq="30" id="52_u_0" lane="52_u_0" pos="x4/2"/><inductionLoop file="loop_36_u_0.xml" freq="30" id="36_u_0" lane="36_u_0" pos="x5/2"/><vTypeProbe file="probe1.xml" freq="3" id="probe1" type="type1"/></additional>