<nodes><node id="12_input" x="-250.0" y="0"/><node id="12_output" x="-50.0" y="0.0"/><node id="34_output" x="250.0" y="0.0"/><node id="36_output" x="120.71067811865474" y="-70.71067811865474"/><node id="52_input" x="-120.71067811865474" y="-70.71067811865474"/><node id="23_output" x="50.0" y="0.0"/></nodes>