<routes><vType xmlns:length="5" xmlns:maxSpeed="120" accel="3.0" decel="4.5" id="type1" sigma="0.5"/><flow begin="0" end="7200" id="type_12_1" probability="0.3888888888888889" type="type1"><route edges="12_u 23_u 34_u"/></flow><flow begin="0" end="7200" id="type_12_2" probability="0.1388888888888889" type="type1"><route edges="12_u 23_u 36_u"/></flow><flow begin="0" end="7200" id="type_52_1" probability="0.3333333333333333" type="type1"><route edges="52_u 23_u 34_u"/></flow><flow begin="0" end="7200" id="type_52_2" probability="0.1388888888888889" type="type1"><route edges="52_u 23_u 36_u"/></flow></routes>