<net><edge function="normal" id="12_u" numLanes="5" from="12_input" to="12_output"><lane index="0" length="200" shape="-250.0,-7.0 -50.0,-5.25" speed="120"/><lane index="1" length="200" shape="-250.0,-3.5 -50.0,-1.75" speed="120"/><lane index="2" length="200" shape="-250.0,0 -50.0,1.75" speed="120"/><lane index="3" length="200" shape="-250.0,3.5 -50.0,5.25" speed="120"/><lane index="4" length="200" shape="-250.0,7.0 -50.0,8.75" speed="120"/></edge><edge function="normal" id="23_u" numLanes="6" from="12_output" to="23_output"><lane index="0" length="100" shape="-50.0,-8.75 50.0,-8.75" speed="120"/><lane index="1" length="100" shape="-50.0,-5.25 50.0,-5.25" speed="120"/><lane index="2" length="100" shape="-50.0,-1.75 50.0,-1.75" speed="120"/><lane index="3" length="100" shape="-50.0,1.75 50.0,1.75" speed="120"/><lane index="4" length="100" shape="-50.0,5.25 50.0,5.25" speed="120"/><lane index="5" length="100" shape="-50.0,8.75 50.0,8.75" speed="120"/></edge><edge function="normal" id="34_u" numLanes="5" from="23_output" to="34_output"><lane index="0" length="200" shape="50.0,-5.25 250.0,-7.0" speed="120"/><lane index="1" length="200" shape="50.0,-1.75 250.0,-3.5" speed="120"/><lane index="2" length="200" shape="50.0,1.75 250.0,0.0" speed="120"/><lane index="3" length="200" shape="50.0,5.25 250.0,3.5" speed="120"/><lane index="4" length="200" shape="50.0,8.75 250.0,7.0" speed="120"/></edge><edge function="normal" id="52_u" numLanes="1" from="52_input" to="12_output"><lane index="0" length="100" shape="-120.71067811865474,-70.71067811865474 -50.0,-8.75" speed="120"/></edge><edge function="normal" id="36_u" numLanes="1" from="23_output" to="36_output"><lane index="0" length="100" shape="50.0,-8.75 120.71067811865474,-70.71067811865474" speed="120"/></edge></net>