<connections><connection xmlns:fromLane="0" xmlns:toLane="1" from="12_u" to="23_u"/><connection xmlns:fromLane="1" xmlns:toLane="2" from="12_u" to="23_u"/><connection xmlns:fromLane="2" xmlns:toLane="3" from="12_u" to="23_u"/><connection xmlns:fromLane="3" xmlns:toLane="4" from="12_u" to="23_u"/><connection xmlns:fromLane="4" xmlns:toLane="5" from="12_u" to="23_u"/><connection xmlns:fromLane="1" xmlns:toLane="0" from="23_u" to="34_u"/><connection xmlns:fromLane="2" xmlns:toLane="1" from="23_u" to="34_u"/><connection xmlns:fromLane="3" xmlns:toLane="2" from="23_u" to="34_u"/><connection xmlns:fromLane="4" xmlns:toLane="3" from="23_u" to="34_u"/><connection xmlns:fromLane="5" xmlns:toLane="4" from="23_u" to="34_u"/><connection xmlns:fromLane="0" xmlns:toLane="0" from="23_u" to="36_u"/><connection xmlns:fromLane="0" xmlns:toLane="0" from="52_u" to="23_u"/></connections>